Info: SIMULATION PARAMETERS:
Info: TIMESTEP               2
Info: NUMBER OF STEPS        0
Info: STEPS PER CYCLE        20
Info: PERIODIC CELL BASIS 1  76.4399 0 0
Info: PERIODIC CELL BASIS 2  0 75.9376 0
Info: PERIODIC CELL BASIS 3  0 0 82.4353
Info: PERIODIC CELL CENTER   -0.13 -0.15 -0.05
Info: WRAPPING WATERS AROUND PERIODIC BOUNDARIES ON OUTPUT.
Info: WRAPPING ALL CLUSTERS AROUND PERIODIC BOUNDARIES ON OUTPUT.
Info: FIRST LDB TIMESTEP     100
Info: LAST LDB TIMESTEP     -1
Info: HOM BACKGROUND SCALING 1
Info: PME BACKGROUND SCALING 1
Info: REMOVING LOAD FROM NODE 0
Info: REMOVING PATCHES FROM PROCESSOR 0
Info: MIN ATOMS PER PATCH    40
Info: VELOCITY FILE          04.restart.vel
Info: CENTER OF MASS MOVING INITIALLY? NO
Info: DIELECTRIC             1
Info: EXCLUDE                SCALED ONE-FOUR
Info: 1-4 ELECTROSTATICS SCALED BY 1
Info: MODIFIED 1-4 VDW PARAMETERS WILL BE USED
Info: DCD FILENAME           prod01.dcd
Info: DCD FREQUENCY          1000
Info: DCD FIRST STEP         1000
Info: DCD FILE WILL CONTAIN UNIT CELL DATA
Info: XST FILENAME           prod01.xst
Info: XST FREQUENCY          1000
Info: NO VELOCITY DCD OUTPUT
Info: NO FORCE DCD OUTPUT
Info: OUTPUT FILENAME        prod01
Info: BINARY OUTPUT FILES WILL BE USED
Info: RESTART FILENAME       prod01.restart
Info: RESTART FREQUENCY      1000
Info: BINARY RESTART FILES WILL BE USED
Info: SWITCHING ACTIVE
Info: SWITCHING ON           10
Info: SWITCHING OFF          12
Info: PAIRLIST DISTANCE      13.5
Info: PAIRLIST SHRINK RATE   0.01
Info: PAIRLIST GROW RATE     0.01
Info: PAIRLIST TRIGGER       0.3
Info: PAIRLISTS PER CYCLE    2
Info: PAIRLISTS ENABLED
Info: MARGIN                 5
Info: HYDROGEN GROUP CUTOFF  2.5
Info: PATCH DIMENSION        21
Info: ENERGY OUTPUT STEPS    1000
Info: CROSSTERM ENERGY INCLUDED IN DIHEDRAL
Info: TIMING OUTPUT STEPS    10000
Info: PRESSURE OUTPUT STEPS  1000
Info: LANGEVIN DYNAMICS ACTIVE
Info: LANGEVIN TEMPERATURE   323
Info: LANGEVIN USING BBK INTEGRATOR
Info: LANGEVIN DAMPING COEFFICIENT IS 1 INVERSE PS
Info: LANGEVIN DYNAMICS APPLIED TO HYDROGENS
Info: LANGEVIN PISTON PRESSURE CONTROL ACTIVE
Info:        TARGET PRESSURE IS 1.01325 BAR
Info:     OSCILLATION PERIOD IS 200 FS
Info:             DECAY TIME IS 50 FS
Info:     PISTON TEMPERATURE IS 323 K
Info:       PRESSURE CONTROL IS GROUP-BASED
Info:    INITIAL STRAIN RATE IS -3.39179e-05 6.81317e-05 -2.04198e-06
Info:       CELL FLUCTUATION IS ANISOTROPIC
Info:     CONSTANT AREA PRESSURE CONTROL ACTIVE
Info: PARTICLE MESH EWALD (PME) ACTIVE
Info: PME TOLERANCE               1e-06
Info: PME EWALD COEFFICIENT       0.257952
Info: PME INTERPOLATION ORDER     4
Info: PME GRID DIMENSIONS         90 90 90
Info: PME MAXIMUM GRID SPACING    1.5
Info: FULL ELECTROSTATIC EVALUATION FREQUENCY      2
Info: USING VERLET I (r-RESPA) MTS SCHEME.
Info: C1 SPLITTING OF LONG RANGE ELECTROSTATICS
Info: PLACING ATOMS IN PATCHES BY HYDROGEN GROUPS
Info: RIGID BONDS TO HYDROGEN : ALL
Info:         ERROR TOLERANCE : 1e-08
Info:          MAX ITERATIONS : 100
Info: RIGID WATER USING SETTLE ALGORITHM
Info: RANDOM NUMBER SEED     1657545960
Info: USE HYDROGEN BONDS?    NO
Info: COORDINATE PDB         ionized.pdb
Info: STRUCTURE FILE         ionized.psf
Info: PARAMETER file: CHARMM format!
Info: PARAMETERS             par_all36_lipid.prm
Info: PARAMETERS             par_all36_prot.prm
Info: PARAMETERS             par_all27_prot_na.prm
Info: USING ARITHMETIC MEAN TO COMBINE L-J SIGMA PARAMETERS
Info: BINARY COORDINATES     04.restart.coor
Info: SUMMARY OF PARAMETERS:
Info: 439 BONDS
Info: 1151 ANGLES
Info: 2013 DIHEDRAL
Info: 109 IMPROPER
Info: 12 CROSSTERM
Info: 240 VDW
Info: 0 VDW_PAIRS
Info: 0 NBTHOLE_PAIRS
Info: STRUCTURE SUMMARY:
Info: 49975 ATOMS
Info: 41754 BONDS
Info: 57977 ANGLES
Info: 69800 DIHEDRALS
Info: 400 IMPROPERS
Info: 0 CROSSTERMS
Info: 0 EXCLUSIONS
Info: 39931 RIGID BONDS
Info: 109994 DEGREES OF FREEDOM
Info: 18021 HYDROGEN GROUPS
Info: 4 ATOMS IN LARGEST HYDROGEN GROUP
Info: 18021 MIGRATION GROUPS
Info: 4 ATOMS IN LARGEST MIGRATION GROUP
Info: TOTAL MASS = 291806 amu
Info: TOTAL CHARGE = 1.04308e-05 e
Info: MASS DENSITY = 1.01266 g/cm^3
Info: ATOM DENSITY = 0.104439 atoms/A^3
Info: ADDED 169531 IMPLICIT EXCLUSIONS
Info: NONBONDED TABLE R-SQUARED SPACING: 0.0625
Info: NONBONDED TABLE SIZE: 769 POINTS
Info: REMOVING COM VELOCITY 0.00111653 0.0281958 0.0369287
TCL: Running for 10000 steps
ETITLE: TS BOND ANGLE DIHED IMPRP ELECT VDW BOUNDARY MISC KINETIC TOTAL TEMP POTENTIAL TOTAL3 TEMPAVG PRESSURE GPRESSURE VOLUME PRESSAVG GPRESSAVG
ENERGY: 0 2771.1855 15851.9444 10030.8703 122.9196 -110285.3243 -1558.8061 0.0000 0.0000 32906.6317 -50160.5789 301.0959 -83067.2106 -49901.5100 301.0959 -18.0623 3.4840 478508.7900 -18.0623 3.4840
ENERGY: 2000 2879.9675 16658.7196 10108.2600 141.8244 -108006.1768 -1529.5522 0.0000 0.0000 35148.7750 -44598.1824 321.6115 -79746.9575 -44333.2932 320.5993 310.8700 311.4014 482935.9161 45.8124 46.2141
ENERGY: 4000 2897.9131 16721.7592 10204.0973 131.0029 -107562.5509 -1743.2352 0.0000 0.0000 35261.7417 -44089.2718 322.6452 -79351.0135 -43813.3830 323.2797 40.6990 63.8886 484731.4270 -22.3895 -21.6650
ENERGY: 6000 2872.7160 16767.0324 10105.8271 113.1313 -107924.6946 -1531.1110 0.0000 0.0000 35439.6203 -44157.4786 324.2727 -79597.0989 -43901.4088 323.7889 96.2687 124.7344 483963.2947 -2.6787 -2.5198
ENERGY: 8000 2900.6483 16586.1248 10146.6511 132.4955 -107970.7740 -1511.0012 0.0000 0.0000 35217.1441 -44498.7115 322.2371 -79715.8556 -44223.8607 322.1693 319.7653 348.8992 483711.8387 5.8114 5.7335
ENERGY: 10000 2811.2432 16549.0726 10158.8926 120.8265 -107453.8111 -1629.7879 0.0000 0.0000 35690.3137 -43753.2504 326.5666 -79443.5641 -43476.1682 324.5820 -142.5957 -119.5523 483638.1620 9.8178 9.4672
